
# ######################################################################################
#  Gold test set entry 6rnt                       v2.0 alfa, May 21, 2001 (WN)         #
#  Name:               hydrolase(endoribonuclease)                                     #
#  PDB headers:        ribonuclease t=1= (e.c.3.1.27.3) complex with 2'-adenylic       #
#                      acid                                                            #
#  Resolution:         1.8 Angstrom                                                    #
########################################################################################


@<TRIPOS>MOLECULE
Minimised_ligand (6rnt) hydrolase(endoribonuclease)             
   36    38     1     1     1
SMALL
GASTEIGER


@<TRIPOS>ATOM
      1 PA         -2.0420    2.7845    1.9572 P.3       1 Q2AM105     0.2621 
      2 O1A        -1.1959    3.7674    2.6893 O.co2     1 Q2AM105    -0.5106 
      3 O2A        -1.8886    1.4341    2.5705 O.co2     1 Q2AM105    -0.5106 
      4 O3A        -3.5722    3.2526    2.0239 O.3       1 Q2AM105    -0.3368 
      5 O5'         3.1065    3.4456   -0.6135 O.3       1 Q2AM105    -0.3924 
      6 C5'         2.5965    3.4750   -1.9580 C.3       1 Q2AM105     0.0730 
      7 C4'         1.1701    2.8777   -1.9656 C.3       1 Q2AM105     0.1124 
      8 O4'         1.2199    1.5307   -1.4727 O.3       1 Q2AM105    -0.3475 
      9 C3'         0.1935    3.6233   -1.0148 C.3       1 Q2AM105     0.1140 
     10 O3'        -0.9584    4.0666   -1.7547 O.3       1 Q2AM105    -0.3864 
     11 C2'        -0.2158    2.5335    0.0028 C.3       1 Q2AM105     0.1378 
     12 O2'        -1.5694    2.7383    0.4286 O.3       1 Q2AM105    -0.3105 
     13 C1'        -0.0280    1.2494   -0.8335 C.3       1 Q2AM105     0.1607 
     14 N9          0.0880   -0.0019   -0.0974 N.pl3     1 Q2AM105    -0.2447 
     15 C8          0.7892   -0.2281    0.9834 C.2       1 Q2AM105     0.0922 
     16 N7          0.6845   -1.4355    1.3577 N.2       1 Q2AM105    -0.2331 
     17 C5         -0.1093   -2.1051    0.5175 C.ar      1 Q2AM105     0.1448 
     18 C6         -0.5208   -3.4343    0.4784 C.ar      1 Q2AM105     0.1469 
     19 N6         -0.1155   -4.3424    1.3955 N.pl3     1 Q2AM105    -0.3413 
     20 N1         -1.3499   -3.7552   -0.5413 N.ar      1 Q2AM105    -0.2189 
     21 C2         -1.7285   -2.8440   -1.4735 C.ar      1 Q2AM105     0.1203 
     22 N3         -1.3243   -1.5527   -1.4298 N.ar      1 Q2AM105    -0.2180 
     23 C4         -0.5059   -1.1753   -0.4311 C.ar      1 Q2AM105     0.1590 
     24 ****       -3.8416    3.3546    2.9302 H         1 Q2AM105     0.2182 
     25 ****        3.9808    3.8166   -0.5430 H         1 Q2AM105     0.2095 
     26 ****        2.5551    4.5113   -2.3330 H         1 Q2AM105     0.0584 
     27 ****        3.2408    2.8779   -2.6238 H         1 Q2AM105     0.0584 
     28 ****        0.7655    2.8638   -2.9922 H         1 Q2AM105     0.0646 
     29 ****        0.6577    4.4929   -0.5157 H         1 Q2AM105     0.0648 
     30 ****       -1.6099    4.4735   -1.1926 H         1 Q2AM105     0.2100 
     31 ****        0.4926    2.5625    0.8462 H         1 Q2AM105     0.0671 
     32 ****       -0.8260    1.1766   -1.5911 H         1 Q2AM105     0.0841 
     33 ****        1.4049    0.4911    1.5196 H         1 Q2AM105     0.1004 
     34 ****       -0.4280   -5.3221    1.3265 H         1 Q2AM105     0.1438 
     35 ****        0.5120   -4.0600    2.1639 H         1 Q2AM105     0.1438 
     36 ****       -2.3765   -3.1591   -2.2825 H         1 Q2AM105     0.1048 
@<TRIPOS>BOND
     1    1   12 1    
     2    1    4 1    
     3    1    3 ar   
     4    1    2 ar   
     5   12   11 1    
     6   11   13 1    
     7   11    9 1    
     8    9   10 1    
     9    9    7 1    
    10    7    8 1    
    11    7    6 1    
    12    6    5 1    
    13    8   13 1    
    14   13   14 1    
    15   14   23 1    
    16   14   15 1    
    17   15   16 2    
    18   16   17 1    
    19   17   23 ar   
    20   17   18 ar   
    21   18   20 ar   
    22   18   19 1    
    23   20   21 ar   
    24   21   22 ar   
    25   22   23 ar   
    26    4   24 1    
    27    5   25 1    
    28    6   26 1    
    29    6   27 1    
    30    7   28 1    
    31    9   29 1    
    32   10   30 1    
    33   11   31 1    
    34   13   32 1    
    35   15   33 1    
    36   19   34 1    
    37   19   35 1    
    38   21   36 1    
@<TRIPOS>SUBSTRUCTURE
     1 Q2AM105     1 GROUP             0 A     ****    0 ROOT 
@<TRIPOS>SET
UNK_ATOMS       STATIC     ATOMS    AMSOM    **** 
23 1 2 3 4 5 6 7 8 9 10 11 12 13 14 15 16 17 18 19 \
 20 21 22 23
@<TRIPOS>NORMAL
@<TRIPOS>FF_PBC
FORCE_FIELD_SETUP_FEATURE Force Field Setup information
v1.0  0 0.000000 0.000000 0.000000 0.000000 0.000000 0.000000 NONE 0 0 0 0 0 0 0 0 0 0 0 0 0
